[TITLE]

[JUNCTIONS]
;ID                      Elevation       Demand Pattern                 
 J1                                 0               0 PAT1                       ;

[RESERVOIRS]
;ID                                   Head                  Pattern
 R1                                60                            ;

[TANKS]
;ID                              Elevation           Init Level            Min Level            Max Level             Diameter           Min Volume Volume Curve         Overflow            

[PIPES]
;ID                   Node1                Node2                              Length             Diameter            Roughness           Minor Loss               Status
 P1                   R1                   J1                                10           19.05             130               0                 Open   ;

[PUMPS]
;ID                   Node1                Node2                Properties          

[VALVES]
;ID                   Node1                Node2                            Diameter Type              Setting           Minor Loss

[TAGS]
;type      name       tag       

[DEMANDS]
;ID        Demand     Pattern   

[STATUS]
;ID        Setting   

[PATTERNS]
;ID        Multipliers

PAT1 0.000340 0.000340 0.000340 0.000340 0.000340 0.000340
PAT1 0.000340 0.000340 0.000340 0.000340 0.000340 0.000340
PAT1 0.000340 0.000340 0.000340 0.000340 0.000340 0.000340
PAT1 0.000340 0.000340 0.000340 0.000340 0.000340 0.000340
PAT1 0.000340 0.000340 0.000340 0.000340 0.000340 0.000340
PAT1 0.000340 0.000340 0.000340 0.000340 0.000340 0.000340
PAT1 0.000340 0.000340 0.000340 0.000340 0.000340 0.000340
PAT1 0.000340 0.000340 0.000340 0.000340 0.000340 0.000340
PAT1 0.000340 0.000340 0.000340 0.000340 0.000340 0.000340
PAT1 0.000340 0.000340 0.000340 0.000340 0.000340 0.000340
PAT1 0.000340 0.000340 0.000340 0.000340 0.000340 0.000340
PAT1 0.000340 0.000340 0.000340 0.000340 0.000340 0.000340
PAT1 0.000340 0.000340 0.000340 0.000340 0.000340 0.000340
PAT1 0.000340 0.000340 0.000340 0.000340 0.000340 0.000340
PAT1 0.000340 0.000340 0.000340 0.000340 0.000340 0.000340
PAT1 0.000340 0.000340 0.000340 0.000340 0.000340 0.000340
PAT1 0.000340 0.000340 0.000340 0.000340 0.000340 0.000340
PAT1 0.000340 0.000340 0.000340 0.000340 0.000340 0.000340
PAT1 0.000340 0.000340 0.000340 0.000340 0.000340 0.000340
PAT1 0.000340 0.000340 0.000340 0.000340 0.000340 0.000340
PAT1 0.000340 0.000340 0.000340 0.000340 0.000340 0.000340
PAT1 0.000340 0.000340 0.000340 0.000340 0.000340 0.000340
PAT1 0.000340 0.000340 0.000340 0.000340 0.000340 0.000340
PAT1 0.000340 0.000340 0.000340 0.000340 0.000340 0.000340
PAT1 0.000340 0.000340 0.000340 0.000340 0.000340 0.000340
PAT1 0.000340 0.000340 0.000340 0.000340 0.000340 0.000340
PAT1 0.000340 0.000340 0.000340 0.000340 0.000340 0.000340
PAT1 0.000340 0.000340 0.000340 0.000340 0.000340 0.000340
PAT1 0.000340 0.000340 0.000340 0.000340 0.000340 0.000340
PAT1 0.000340 0.000340 0.000340 0.000340 0.000340 0.000340
PAT1 0.000340 0.000340 0.000340 0.000340 0.000340 0.000340
PAT1 0.000340 0.000340 0.000340 0.000340 0.000340 0.000340
PAT1 0.000340 0.000340 0.000340 0.000340 0.000340 0.000340
PAT1 0.000340 0.000340 0.000340 0.000340 0.000340 0.000340
PAT1 0.000340 0.000340 0.000340 0.000340 0.000340 0.000340
PAT1 0.000340 0.000340 0.000340 0.000340 0.000340 0.000340
PAT1 0.000340 0.000340 0.000340 0.000340 0.000340 0.000340
PAT1 0.000340 0.000340 0.000340 0.000340 0.000340 0.000340
PAT1 0.000340 0.000340 0.000340 0.000340 0.000340 0.000340
PAT1 0.000340 0.000340 0.000340 0.000340 0.000340 0.000340
PAT1 0.000340 0.000340 0.000340 0.000340 0.000340 0.000340
PAT1 0.000340 0.000340 0.000340 0.000340 0.000340 0.000340
PAT1 0.000340 0.000340 0.000340 0.000340 0.000340 0.000340
PAT1 0.000340 0.000340 0.000340 0.000340 0.000340 0.000340
PAT1 0.000340 0.000340 0.000340 0.000340 0.000340 0.000340
PAT1 0.000340 0.000340 0.000340 0.000340 0.000340 0.000340
PAT1 0.000340 0.000340 0.000340 0.000340 0.000340 0.000340
PAT1 0.000340 0.000340 0.000340 0.000340 0.000340 0.000340
PAT1 0.000340 0.000340 0.000340 0.000340 0.000340 0.000340
PAT1 0.000340 0.000340 0.000340 0.000340 0.000340 0.000340
PAT1 0.001361 0.001361 0.001361 0.001361 0.001361 0.001361
PAT1 0.001361 0.001361 0.001361 0.001361 0.001361 0.001361
PAT1 0.001361 0.001361 0.001361 0.001361 0.001361 0.001361
PAT1 0.001361 0.001361 0.001361 0.001361 0.001361 0.001361
PAT1 0.001361 0.001361 0.001361 0.001361 0.001361 0.001361
PAT1 0.001361 0.001361 0.001361 0.001361 0.001361 0.001361
PAT1 0.001361 0.001361 0.001361 0.001361 0.001361 0.001361
PAT1 0.001361 0.001361 0.001361 0.001361 0.001361 0.001361
PAT1 0.001361 0.001361 0.001361 0.001361 0.001361 0.001361
PAT1 0.001361 0.001361 0.001361 0.001361 0.001361 0.001361
PAT1 0.001134 0.001134 0.001134 0.001134 0.001134 0.001134
PAT1 0.001134 0.001134 0.001134 0.001134 0.001134 0.001134
PAT1 0.001134 0.001134 0.001134 0.001134 0.001134 0.001134
PAT1 0.001134 0.001134 0.001134 0.001134 0.001134 0.001134
PAT1 0.001134 0.001134 0.001134 0.001134 0.001134 0.001134
PAT1 0.001134 0.001134 0.001134 0.001134 0.001134 0.001134
PAT1 0.001134 0.001134 0.001134 0.001134 0.001134 0.001134
PAT1 0.001134 0.001134 0.001134 0.001134 0.001134 0.001134
PAT1 0.001134 0.001134 0.001134 0.001134 0.001134 0.001134
PAT1 0.001134 0.001134 0.001134 0.001134 0.001134 0.001134
PAT1 0.001134 0.001134 0.001134 0.001134 0.001134 0.001134
PAT1 0.001134 0.001134 0.001134 0.001134 0.001134 0.001134
PAT1 0.001134 0.001134 0.001134 0.001134 0.001134 0.001134
PAT1 0.001134 0.001134 0.001134 0.001134 0.001134 0.001134
PAT1 0.001134 0.001134 0.001134 0.001134 0.001134 0.001134
PAT1 0.001134 0.001134 0.001134 0.001134 0.001134 0.001134
PAT1 0.001134 0.001134 0.001134 0.001134 0.001134 0.001134
PAT1 0.001134 0.001134 0.001134 0.001134 0.001134 0.001134
PAT1 0.001134 0.001134 0.001134 0.001134 0.001134 0.001134
PAT1 0.001134 0.001134 0.001134 0.001134 0.001134 0.001134
PAT1 0.001134 0.001134 0.001134 0.001134 0.001134 0.001134
PAT1 0.001134 0.001134 0.001134 0.001134 0.001134 0.001134
PAT1 0.001134 0.001134 0.001134 0.001134 0.001134 0.001134
PAT1 0.001134 0.001134 0.001134 0.001134 0.001134 0.001134
PAT1 0.001134 0.001134 0.001134 0.001134 0.001134 0.001134
PAT1 0.001134 0.001134 0.001134 0.001134 0.001134 0.001134
PAT1 0.001134 0.001134 0.001134 0.001134 0.001134 0.001134
PAT1 0.001134 0.001134 0.001134 0.001134 0.001134 0.001134
PAT1 0.001134 0.001134 0.001134 0.001134 0.001134 0.001134
PAT1 0.001134 0.001134 0.001134 0.001134 0.001134 0.001134
PAT1 0.000340 0.000340 0.000340 0.000340 0.000340 0.000340
PAT1 0.000340 0.000340 0.000340 0.000340 0.000340 0.000340
PAT1 0.000340 0.000340 0.000340 0.000340 0.000340 0.000340
PAT1 0.000340 0.000340 0.000340 0.000340 0.000340 0.000340
PAT1 0.000340 0.000340 0.000340 0.000340 0.000340 0.000340
PAT1 0.000340 0.000340 0.000340 0.000340 0.000340 0.000340
PAT1 0.000340 0.000340 0.000340 0.000340 0.000340 0.000340
PAT1 0.000340 0.000340 0.000340 0.000340 0.000340 0.000340
PAT1 0.000340 0.000340 0.000340 0.000340 0.000340 0.000340
PAT1 0.000340 0.000340 0.000340 0.000340 0.000340 0.000340
PAT1 0.000340 0.000340 0.000340 0.000340 0.000340 0.000340
PAT1 0.000340 0.000340 0.000340 0.000340 0.000340 0.000340
PAT1 0.000340 0.000340 0.000340 0.000340 0.000340 0.000340
PAT1 0.000340 0.000340 0.000340 0.000340 0.000340 0.000340
PAT1 0.000340 0.000340 0.000340 0.000340 0.000340 0.000340
PAT1 0.000340 0.000340 0.000340 0.000340 0.000340 0.000340
PAT1 0.000340 0.000340 0.000340 0.000340 0.000340 0.000340
PAT1 0.000340 0.000340 0.000340 0.000340 0.000340 0.000340
PAT1 0.000340 0.000340 0.000340 0.000340 0.000340 0.000340
PAT1 0.000340 0.000340 0.000340 0.000340 0.000340 0.000340
PAT1 0.000340 0.000340 0.000340 0.000340 0.000340 0.000340
PAT1 0.000340 0.000340 0.000340 0.000340 0.000340 0.000340
PAT1 0.000340 0.000340 0.000340 0.000340 0.000340 0.000340
PAT1 0.000340 0.000340 0.000340 0.000340 0.000340 0.000340
PAT1 0.000340 0.000340 0.000340 0.000340 0.000340 0.000340
PAT1 0.000340 0.000340 0.000340 0.000340 0.000340 0.000340
PAT1 0.000340 0.000340 0.000340 0.000340 0.000340 0.000340
PAT1 0.000340 0.000340 0.000340 0.000340 0.000340 0.000340
PAT1 0.000340 0.000340 0.000340 0.000340 0.000340 0.000340
PAT1 0.000340 0.000340 0.000340 0.000340 0.000340 0.000340
PAT1 0.000681 0.000681 0.000681 0.000681 0.000681 0.000681
PAT1 0.000681 0.000681 0.000681 0.000681 0.000681 0.000681
PAT1 0.000681 0.000681 0.000681 0.000681 0.000681 0.000681
PAT1 0.000681 0.000681 0.000681 0.000681 0.000681 0.000681
PAT1 0.000681 0.000681 0.000681 0.000681 0.000681 0.000681
PAT1 0.000681 0.000681 0.000681 0.000681 0.000681 0.000681
PAT1 0.000681 0.000681 0.000681 0.000681 0.000681 0.000681
PAT1 0.000681 0.000681 0.000681 0.000681 0.000681 0.000681
PAT1 0.000681 0.000681 0.000681 0.000681 0.000681 0.000681
PAT1 0.000681 0.000681 0.000681 0.000681 0.000681 0.000681
PAT1 0.000340 0.000340 0.000340 0.000340 0.000340 0.000340
PAT1 0.000340 0.000340 0.000340 0.000340 0.000340 0.000340
PAT1 0.000340 0.000340 0.000340 0.000340 0.000340 0.000340
PAT1 0.000340 0.000340 0.000340 0.000340 0.000340 0.000340
PAT1 0.000340 0.000340 0.000340 0.000340 0.000340 0.000340
PAT1 0.000340 0.000340 0.000340 0.000340 0.000340 0.000340
PAT1 0.000340 0.000340 0.000340 0.000340 0.000340 0.000340
PAT1 0.000340 0.000340 0.000340 0.000340 0.000340 0.000340
PAT1 0.000340 0.000340 0.000340 0.000340 0.000340 0.000340
PAT1 0.000340 0.000340 0.000340 0.000340 0.000340 0.000340
PAT1 0.000340 0.000340 0.000340 0.000340 0.000340 0.000340
PAT1 0.000340 0.000340 0.000340 0.000340 0.000340 0.000340
PAT1 0.000340 0.000340 0.000340 0.000340 0.000340 0.000340
PAT1 0.000340 0.000340 0.000340 0.000340 0.000340 0.000340
PAT1 0.000340 0.000340 0.000340 0.000340 0.000340 0.000340
PAT1 0.000340 0.000340 0.000340 0.000340 0.000340 0.000340
PAT1 0.000340 0.000340 0.000340 0.000340 0.000340 0.000340
PAT1 0.000340 0.000340 0.000340 0.000340 0.000340 0.000340
PAT1 0.000340 0.000340 0.000340 0.000340 0.000340 0.000340
PAT1 0.000340 0.000340 0.000340 0.000340 0.000340 0.000340
PAT1 0.000340 0.000340 0.000340 0.000340 0.000340 0.000340
PAT1 0.000340 0.000340 0.000340 0.000340 0.000340 0.000340
PAT1 0.000340 0.000340 0.000340 0.000340 0.000340 0.000340
PAT1 0.000340 0.000340 0.000340 0.000340 0.000340 0.000340
PAT1 0.000340 0.000340 0.000340 0.000340 0.000340 0.000340
PAT1 0.000340 0.000340 0.000340 0.000340 0.000340 0.000340
PAT1 0.000340 0.000340 0.000340 0.000340 0.000340 0.000340
PAT1 0.000340 0.000340 0.000340 0.000340 0.000340 0.000340
PAT1 0.000340 0.000340 0.000340 0.000340 0.000340 0.000340
PAT1 0.000340 0.000340 0.000340 0.000340 0.000340 0.000340
PAT1 0.000340 0.000340 0.000340 0.000340 0.000340 0.000340
PAT1 0.000340 0.000340 0.000340 0.000340 0.000340 0.000340
PAT1 0.000340 0.000340 0.000340 0.000340 0.000340 0.000340
PAT1 0.000340 0.000340 0.000340 0.000340 0.000340 0.000340
PAT1 0.000340 0.000340 0.000340 0.000340 0.000340 0.000340
PAT1 0.000340 0.000340 0.000340 0.000340 0.000340 0.000340
PAT1 0.000340 0.000340 0.000340 0.000340 0.000340 0.000340
PAT1 0.000340 0.000340 0.000340 0.000340 0.000340 0.000340
PAT1 0.000340 0.000340 0.000340 0.000340 0.000340 0.000340
PAT1 0.000340 0.000340 0.000340 0.000340 0.000340 0.000340
PAT1 0.001248 0.001248 0.001248 0.001248 0.001248 0.001248
PAT1 0.001248 0.001248 0.001248 0.001248 0.001248 0.001248
PAT1 0.001248 0.001248 0.001248 0.001248 0.001248 0.001248
PAT1 0.001248 0.001248 0.001248 0.001248 0.001248 0.001248
PAT1 0.001248 0.001248 0.001248 0.001248 0.001248 0.001248
PAT1 0.001248 0.001248 0.001248 0.001248 0.001248 0.001248
PAT1 0.001248 0.001248 0.001248 0.001248 0.001248 0.001248
PAT1 0.001248 0.001248 0.001248 0.001248 0.001248 0.001248
PAT1 0.001248 0.001248 0.001248 0.001248 0.001248 0.001248
PAT1 0.001248 0.001248 0.001248 0.001248 0.001248 0.001248
PAT1 0.001248 0.001248 0.001248 0.001248 0.001248 0.001248
PAT1 0.001248 0.001248 0.001248 0.001248 0.001248 0.001248
PAT1 0.001248 0.001248 0.001248 0.001248 0.001248 0.001248
PAT1 0.001248 0.001248 0.001248 0.001248 0.001248 0.001248
PAT1 0.001248 0.001248 0.001248 0.001248 0.001248 0.001248
PAT1 0.001248 0.001248 0.001248 0.001248 0.001248 0.001248
PAT1 0.001248 0.001248 0.001248 0.001248 0.001248 0.001248
PAT1 0.001248 0.001248 0.001248 0.001248 0.001248 0.001248
PAT1 0.001248 0.001248 0.001248 0.001248 0.001248 0.001248
PAT1 0.001248 0.001248 0.001248 0.001248 0.001248 0.001248
PAT1 0.001248 0.001248 0.001248 0.001248 0.001248 0.001248
PAT1 0.001248 0.001248 0.001248 0.001248 0.001248 0.001248
PAT1 0.001248 0.001248 0.001248 0.001248 0.001248 0.001248
PAT1 0.001248 0.001248 0.001248 0.001248 0.001248 0.001248
PAT1 0.001248 0.001248 0.001248 0.001248 0.001248 0.001248
PAT1 0.001248 0.001248 0.001248 0.001248 0.001248 0.001248
PAT1 0.001248 0.001248 0.001248 0.001248 0.001248 0.001248
PAT1 0.001248 0.001248 0.001248 0.001248 0.001248 0.001248
PAT1 0.001248 0.001248 0.001248 0.001248 0.001248 0.001248
PAT1 0.001248 0.001248 0.001248 0.001248 0.001248 0.001248
PAT1 0.001248 0.001248 0.001248 0.001248 0.001248 0.001248
PAT1 0.001248 0.001248 0.001248 0.001248 0.001248 0.001248
PAT1 0.001248 0.001248 0.001248 0.001248 0.001248 0.001248
PAT1 0.001248 0.001248 0.001248 0.001248 0.001248 0.001248
PAT1 0.001248 0.001248 0.001248 0.001248 0.001248 0.001248
PAT1 0.001248 0.001248 0.001248 0.001248 0.001248 0.001248
PAT1 0.001248 0.001248 0.001248 0.001248 0.001248 0.001248
PAT1 0.001248 0.001248 0.001248 0.001248 0.001248 0.001248
PAT1 0.001248 0.001248 0.001248 0.001248 0.001248 0.001248
PAT1 0.001248 0.001248 0.001248 0.001248 0.001248 0.001248
PAT1 0.001248 0.001248 0.001248 0.001248 0.001248 0.001248
PAT1 0.001248 0.001248 0.001248 0.001248 0.001248 0.001248
PAT1 0.001248 0.001248 0.001248 0.001248 0.001248 0.001248
PAT1 0.001248 0.001248 0.001248 0.001248 0.001248 0.001248
PAT1 0.001248 0.001248 0.001248 0.001248 0.001248 0.001248
PAT1 0.001248 0.001248 0.001248 0.001248 0.001248 0.001248
PAT1 0.001248 0.001248 0.001248 0.001248 0.001248 0.001248
PAT1 0.001248 0.001248 0.001248 0.001248 0.001248 0.001248
PAT1 0.001248 0.001248 0.001248 0.001248 0.001248 0.001248
PAT1 0.001248 0.001248 0.001248 0.001248 0.001248 0.001248
PAT1 0.000340 0.000340 0.000340 0.000340 0.000340 0.000340
PAT1 0.000340 0.000340 0.000340 0.000340 0.000340 0.000340
PAT1 0.000340 0.000340 0.000340 0.000340 0.000340 0.000340
PAT1 0.000340 0.000340 0.000340 0.000340 0.000340 0.000340
PAT1 0.000340 0.000340 0.000340 0.000340 0.000340 0.000340
PAT1 0.000340 0.000340 0.000340 0.000340 0.000340 0.000340
PAT1 0.000340 0.000340 0.000340 0.000340 0.000340 0.000340
PAT1 0.000340 0.000340 0.000340 0.000340 0.000340 0.000340
PAT1 0.000340 0.000340 0.000340 0.000340 0.000340 0.000340
PAT1 0.000340 0.000340 0.000340 0.000340 0.000340 0.000340
PAT1 0.000340 0.000340 0.000340 0.000340 0.000340 0.000340
PAT1 0.000340 0.000340 0.000340 0.000340 0.000340 0.000340
PAT1 0.000340 0.000340 0.000340 0.000340 0.000340 0.000340
PAT1 0.000340 0.000340 0.000340 0.000340 0.000340 0.000340
PAT1 0.000340 0.000340 0.000340 0.000340 0.000340 0.000340
PAT1 0.000340 0.000340 0.000340 0.000340 0.000340 0.000340
PAT1 0.000340 0.000340 0.000340 0.000340 0.000340 0.000340
PAT1 0.000340 0.000340 0.000340 0.000340 0.000340 0.000340
PAT1 0.000340 0.000340 0.000340 0.000340 0.000340 0.000340
PAT1 0.000340 0.000340 0.000340 0.000340 0.000340 0.000340

[CURVES]
;ID         X-Value      Y-Value     

[CONTROLS]

[RULES]

[ENERGY]
GLOBAL PRICE           0.0000

[EMITTERS]
;ID        Flow coefficient

[QUALITY]

[SOURCES]
;Node      Type       Quality    Pattern   

[REACTIONS]
;Type           Pipe/Tank               Coefficient

 ORDER BULK 1
 ORDER TANK 1
 ORDER WALL 1
 GLOBAL BULK 0.0000    
 GLOBAL WALL 0.0000    

[MIXING]
;Tank ID             Model Fraction

[TIMES]
DURATION             744:00:00
HYDRAULIC TIMESTEP   00:15:00
QUALITY TIMESTEP     00:06:00
PATTERN TIMESTEP     00:15:00
PATTERN START        00:00:00
REPORT TIMESTEP      00:15:00
REPORT START         00:00:00
START CLOCKTIME      00:00:00 AM
RULE TIMESTEP        00:06:00
STATISTIC            NONE      

[REPORT]

[OPTIONS]
UNITS                LPS                 
HEADLOSS             H-W                 
SPECIFIC GRAVITY     1
VISCOSITY            1
TRIALS               200
ACCURACY             0.001
CHECKFREQ            2
MAXCHECK             10
UNBALANCED           STOP                
PATTERN              1                   
DEMAND MULTIPLIER    1
EMITTER EXPONENT     0.5
QUALITY              NONE                
DIFFUSIVITY          1
TOLERANCE            0.01

[COORDINATES]
;Node      X-Coord    Y-Coord   
R1                  0.000000000          0.000000000
J1                  0.000000000          0.000000000

[VERTICES]
;Link      X-Coord    Y-Coord   

[LABELS]

[BACKDROP]
UNITS    NONE

[END]
